# Open-boundaries
 &OBCS_PARM01
 OB_Jsouth=40*1,
 useOrlanskiSouth=.FALSE.,
 useOBCSsponge=.TRUE.,
 OBCS_monitorFreq=1200.,
 useOBCSbalance=.TRUE.,
 &

# Orlanski parameters
 &OBCS_PARM02
 Cmax=1,
 cVelTimeScale=2000.,
 &

 &OBCS_PARM03
 spongeThickness=20,
  &
