# Open-boundaries
 &OBCS_PARM01
 OB_Jsouth=20*-1,
 useOrlanskiSouth=.TRUE.,
 useOBCSsponge=.FALSE.,
 useLinearSponge=.FALSE.,
 OBCSsponge_Salt=.FALSE.,
 OBCSsponge_Theta=.FALSE.,
 useOBCSbalance=.TRUE.,
 useOBCSprescribe=.TRUE.,
 OBCS_balanceFacS=1.,
 OBCS_monitorFreq=1200.,
 OBStFile='tempOBCS.bin'
 &

# Orlanski parameters
 &OBCS_PARM02
 Cmax=1,
 cVelTimeScale=2000.,
 &
